/*---------------------------------------------------------------------------*\
| =========                 |                                                 |
| \\      /  F ield         | OpenFOAM: The Open Source CFD Toolbox           |
|  \\    /   O peration     | Version:  1.3                                   |
|   \\  /    A nd           | Web:      http://www.openfoam.org               |
|    \\/     M anipulation  |                                                 |
\*---------------------------------------------------------------------------*/

FoamFile
{
    version         2.0;
    format          ascii;

    root            "";
    case            "";
    instance        "";
    local           "";

    class           dictionary;
    object          transportProperties;
}

// * * * * * * * * * * * * * * * * * * * * * * * * * * * * * * * * * * * * * //

// Вода
nu              nu [0 2 -1 0 0 0 0] 1.002e-6;
alpha           alpha [0 2 -1 0 0 0 0] 1.438e-7;
DT              DT [0 2 -1 0 0 0 0] 1.438e-7;

// // Этанол при 110 градусах
// nu              nu [0 2 -1 0 0 0 0] 4.38e-7;
// alpha           alpha [0 2 -1 0 0 0 0] 1.32e-7;
// DT              DT [0 2 -1 0 0 0 0] 1.32e-7;

// // Масло подсолнечное
// nu              nu [0 2 -1 0 0 0 0] 6.0e-5;
// alpha           alpha [0 2 -1 0 0 0 0] 8.0e-8;
// DT              DT [0 2 -1 0 0 0 0] 8.0e-8;

// Глицерин
// nu              nu [0 2 -1 0 0 0 0] 1.111e-3;
// alpha           alpha [0 2 -1 0 0 0 0] 1.0e-7;
// DT              DT [0 2 -1 0 0 0 0] 1.0e-7;

// Машинное масло
// nu              nu [0 2 -1 0 0 0 0] 1.17e-4;
// alpha           alpha [0 2 -1 0 0 0 0] 8.0e-8;
// DT              DT [0 2 -1 0 0 0 0] 8.0e-8;


// Воздух
// nu              nu [0 2 -1 0 0 0 0] 1.51e-5;
// alpha           alpha [0 2 -1 0 0 0 0] 2.14e-5;
// DT              DT [0 2 -1 0 0 0 0] 2.14e-5;

// ************************************************************************* //
